/*--------------------------------*- C++ -*----------------------------------*\
| =========                 |                                                 |
| \\      /  F ield         | OpenFOAM: The Open Source CFD Toolbox           |
|  \\    /   O peration     | Version:  5.0                                   |
|   \\  /    A nd           | Web:      www.OpenFOAM.org                      |
|    \\/     M anipulation  |                                                 |
\*---------------------------------------------------------------------------*/
FoamFile
{
    version     2.0;
    format      ascii;
    class       polyBoundaryMesh;
    location    "constant/polyMesh";
    object      boundary;
}
// * * * * * * * * * * * * * * * * * * * * * * * * * * * * * * * * * * * * * //

899
(
    fixedWalls
    {
        type            wall;
        inGroups        1(wall);
        nFaces          1792;
        startFace       554224;
    }
    openBoundaries
    {
        type            wall;
        inGroups        1(wall);
        nFaces          9984;
        startFace       556016;
    }
    ciliaWedge4f
    {
        type            wall;
        inGroups        1(wall);
        nFaces          1;
        startFace       566000;
    }
    ciliaWedge4back
    {
        type            wall;
        inGroups        1(wall);
        nFaces          1;
        startFace       566001;
    }
    ciliaWedge4bot
    {
        type            wall;
        inGroups        1(wall);
        nFaces          1;
        startFace       566002;
    }
    ciliaWedge4t
    {
        type            wall;
        inGroups        1(wall);
        nFaces          1;
        startFace       566003;
    }
    ciliaWedge5f
    {
        type            wall;
        inGroups        1(wall);
        nFaces          1;
        startFace       566004;
    }
    ciliaWedge5back
    {
        type            wall;
        inGroups        1(wall);
        nFaces          1;
        startFace       566005;
    }
    ciliaWedge5bot
    {
        type            wall;
        inGroups        1(wall);
        nFaces          1;
        startFace       566006;
    }
    ciliaWedge5t
    {
        type            wall;
        inGroups        1(wall);
        nFaces          1;
        startFace       566007;
    }
    ciliaWedge20f
    {
        type            wall;
        inGroups        1(wall);
        nFaces          1;
        startFace       566008;
    }
    ciliaWedge20back
    {
        type            wall;
        inGroups        1(wall);
        nFaces          1;
        startFace       566009;
    }
    ciliaWedge20bot
    {
        type            wall;
        inGroups        1(wall);
        nFaces          1;
        startFace       566010;
    }
    ciliaWedge20t
    {
        type            wall;
        inGroups        1(wall);
        nFaces          1;
        startFace       566011;
    }
    ciliaWedge21f
    {
        type            wall;
        inGroups        1(wall);
        nFaces          1;
        startFace       566012;
    }
    ciliaWedge21back
    {
        type            wall;
        inGroups        1(wall);
        nFaces          1;
        startFace       566013;
    }
    ciliaWedge21bot
    {
        type            wall;
        inGroups        1(wall);
        nFaces          1;
        startFace       566014;
    }
    ciliaWedge21t
    {
        type            wall;
        inGroups        1(wall);
        nFaces          1;
        startFace       566015;
    }
    ciliaWedge36f
    {
        type            wall;
        inGroups        1(wall);
        nFaces          1;
        startFace       566016;
    }
    ciliaWedge36back
    {
        type            wall;
        inGroups        1(wall);
        nFaces          1;
        startFace       566017;
    }
    ciliaWedge36bot
    {
        type            wall;
        inGroups        1(wall);
        nFaces          1;
        startFace       566018;
    }
    ciliaWedge36t
    {
        type            wall;
        inGroups        1(wall);
        nFaces          1;
        startFace       566019;
    }
    ciliaWedge37f
    {
        type            wall;
        inGroups        1(wall);
        nFaces          1;
        startFace       566020;
    }
    ciliaWedge37back
    {
        type            wall;
        inGroups        1(wall);
        nFaces          1;
        startFace       566021;
    }
    ciliaWedge37bot
    {
        type            wall;
        inGroups        1(wall);
        nFaces          1;
        startFace       566022;
    }
    ciliaWedge37t
    {
        type            wall;
        inGroups        1(wall);
        nFaces          1;
        startFace       566023;
    }
    ciliaWedge52f
    {
        type            wall;
        inGroups        1(wall);
        nFaces          1;
        startFace       566024;
    }
    ciliaWedge52back
    {
        type            wall;
        inGroups        1(wall);
        nFaces          1;
        startFace       566025;
    }
    ciliaWedge52bot
    {
        type            wall;
        inGroups        1(wall);
        nFaces          1;
        startFace       566026;
    }
    ciliaWedge52t
    {
        type            wall;
        inGroups        1(wall);
        nFaces          1;
        startFace       566027;
    }
    ciliaWedge53f
    {
        type            wall;
        inGroups        1(wall);
        nFaces          1;
        startFace       566028;
    }
    ciliaWedge53back
    {
        type            wall;
        inGroups        1(wall);
        nFaces          1;
        startFace       566029;
    }
    ciliaWedge53bot
    {
        type            wall;
        inGroups        1(wall);
        nFaces          1;
        startFace       566030;
    }
    ciliaWedge53t
    {
        type            wall;
        inGroups        1(wall);
        nFaces          1;
        startFace       566031;
    }
    ciliaWedge6f
    {
        type            wall;
        inGroups        1(wall);
        nFaces          1;
        startFace       566032;
    }
    ciliaWedge6back
    {
        type            wall;
        inGroups        1(wall);
        nFaces          1;
        startFace       566033;
    }
    ciliaWedge6bot
    {
        type            wall;
        inGroups        1(wall);
        nFaces          1;
        startFace       566034;
    }
    ciliaWedge6t
    {
        type            wall;
        inGroups        1(wall);
        nFaces          1;
        startFace       566035;
    }
    ciliaWedge22f
    {
        type            wall;
        inGroups        1(wall);
        nFaces          1;
        startFace       566036;
    }
    ciliaWedge22back
    {
        type            wall;
        inGroups        1(wall);
        nFaces          1;
        startFace       566037;
    }
    ciliaWedge22bot
    {
        type            wall;
        inGroups        1(wall);
        nFaces          1;
        startFace       566038;
    }
    ciliaWedge22t
    {
        type            wall;
        inGroups        1(wall);
        nFaces          1;
        startFace       566039;
    }
    ciliaWedge38f
    {
        type            wall;
        inGroups        1(wall);
        nFaces          1;
        startFace       566040;
    }
    ciliaWedge38back
    {
        type            wall;
        inGroups        1(wall);
        nFaces          1;
        startFace       566041;
    }
    ciliaWedge38bot
    {
        type            wall;
        inGroups        1(wall);
        nFaces          1;
        startFace       566042;
    }
    ciliaWedge38t
    {
        type            wall;
        inGroups        1(wall);
        nFaces          1;
        startFace       566043;
    }
    ciliaWedge54f
    {
        type            wall;
        inGroups        1(wall);
        nFaces          1;
        startFace       566044;
    }
    ciliaWedge54back
    {
        type            wall;
        inGroups        1(wall);
        nFaces          1;
        startFace       566045;
    }
    ciliaWedge54bot
    {
        type            wall;
        inGroups        1(wall);
        nFaces          1;
        startFace       566046;
    }
    ciliaWedge54t
    {
        type            wall;
        inGroups        1(wall);
        nFaces          1;
        startFace       566047;
    }
    ciliaWedge3f
    {
        type            wall;
        inGroups        1(wall);
        nFaces          1;
        startFace       566048;
    }
    ciliaWedge3back
    {
        type            wall;
        inGroups        1(wall);
        nFaces          1;
        startFace       566049;
    }
    ciliaWedge3bot
    {
        type            wall;
        inGroups        1(wall);
        nFaces          1;
        startFace       566050;
    }
    ciliaWedge3t
    {
        type            wall;
        inGroups        1(wall);
        nFaces          1;
        startFace       566051;
    }
    ciliaWedge19f
    {
        type            wall;
        inGroups        1(wall);
        nFaces          1;
        startFace       566052;
    }
    ciliaWedge19back
    {
        type            wall;
        inGroups        1(wall);
        nFaces          1;
        startFace       566053;
    }
    ciliaWedge19bot
    {
        type            wall;
        inGroups        1(wall);
        nFaces          1;
        startFace       566054;
    }
    ciliaWedge19t
    {
        type            wall;
        inGroups        1(wall);
        nFaces          1;
        startFace       566055;
    }
    ciliaWedge35f
    {
        type            wall;
        inGroups        1(wall);
        nFaces          1;
        startFace       566056;
    }
    ciliaWedge35back
    {
        type            wall;
        inGroups        1(wall);
        nFaces          1;
        startFace       566057;
    }
    ciliaWedge35bot
    {
        type            wall;
        inGroups        1(wall);
        nFaces          1;
        startFace       566058;
    }
    ciliaWedge35t
    {
        type            wall;
        inGroups        1(wall);
        nFaces          1;
        startFace       566059;
    }
    ciliaWedge51f
    {
        type            wall;
        inGroups        1(wall);
        nFaces          1;
        startFace       566060;
    }
    ciliaWedge51back
    {
        type            wall;
        inGroups        1(wall);
        nFaces          1;
        startFace       566061;
    }
    ciliaWedge51bot
    {
        type            wall;
        inGroups        1(wall);
        nFaces          1;
        startFace       566062;
    }
    ciliaWedge51t
    {
        type            wall;
        inGroups        1(wall);
        nFaces          1;
        startFace       566063;
    }
    ciliaWedge7f
    {
        type            wall;
        inGroups        1(wall);
        nFaces          1;
        startFace       566064;
    }
    ciliaWedge7back
    {
        type            wall;
        inGroups        1(wall);
        nFaces          1;
        startFace       566065;
    }
    ciliaWedge7bot
    {
        type            wall;
        inGroups        1(wall);
        nFaces          1;
        startFace       566066;
    }
    ciliaWedge7t
    {
        type            wall;
        inGroups        1(wall);
        nFaces          1;
        startFace       566067;
    }
    ciliaWedge23f
    {
        type            wall;
        inGroups        1(wall);
        nFaces          1;
        startFace       566068;
    }
    ciliaWedge23back
    {
        type            wall;
        inGroups        1(wall);
        nFaces          1;
        startFace       566069;
    }
    ciliaWedge23bot
    {
        type            wall;
        inGroups        1(wall);
        nFaces          1;
        startFace       566070;
    }
    ciliaWedge23t
    {
        type            wall;
        inGroups        1(wall);
        nFaces          1;
        startFace       566071;
    }
    ciliaWedge39f
    {
        type            wall;
        inGroups        1(wall);
        nFaces          1;
        startFace       566072;
    }
    ciliaWedge39back
    {
        type            wall;
        inGroups        1(wall);
        nFaces          1;
        startFace       566073;
    }
    ciliaWedge39bot
    {
        type            wall;
        inGroups        1(wall);
        nFaces          1;
        startFace       566074;
    }
    ciliaWedge39t
    {
        type            wall;
        inGroups        1(wall);
        nFaces          1;
        startFace       566075;
    }
    ciliaWedge55f
    {
        type            wall;
        inGroups        1(wall);
        nFaces          1;
        startFace       566076;
    }
    ciliaWedge55back
    {
        type            wall;
        inGroups        1(wall);
        nFaces          1;
        startFace       566077;
    }
    ciliaWedge55bot
    {
        type            wall;
        inGroups        1(wall);
        nFaces          1;
        startFace       566078;
    }
    ciliaWedge55t
    {
        type            wall;
        inGroups        1(wall);
        nFaces          1;
        startFace       566079;
    }
    ciliaWedge2f
    {
        type            wall;
        inGroups        1(wall);
        nFaces          1;
        startFace       566080;
    }
    ciliaWedge2back
    {
        type            wall;
        inGroups        1(wall);
        nFaces          1;
        startFace       566081;
    }
    ciliaWedge2bot
    {
        type            wall;
        inGroups        1(wall);
        nFaces          1;
        startFace       566082;
    }
    ciliaWedge2t
    {
        type            wall;
        inGroups        1(wall);
        nFaces          1;
        startFace       566083;
    }
    ciliaWedge8f
    {
        type            wall;
        inGroups        1(wall);
        nFaces          1;
        startFace       566084;
    }
    ciliaWedge8back
    {
        type            wall;
        inGroups        1(wall);
        nFaces          1;
        startFace       566085;
    }
    ciliaWedge8bot
    {
        type            wall;
        inGroups        1(wall);
        nFaces          1;
        startFace       566086;
    }
    ciliaWedge8t
    {
        type            wall;
        inGroups        1(wall);
        nFaces          1;
        startFace       566087;
    }
    ciliaWedge18f
    {
        type            wall;
        inGroups        1(wall);
        nFaces          1;
        startFace       566088;
    }
    ciliaWedge18back
    {
        type            wall;
        inGroups        1(wall);
        nFaces          1;
        startFace       566089;
    }
    ciliaWedge18bot
    {
        type            wall;
        inGroups        1(wall);
        nFaces          1;
        startFace       566090;
    }
    ciliaWedge18t
    {
        type            wall;
        inGroups        1(wall);
        nFaces          1;
        startFace       566091;
    }
    ciliaWedge24f
    {
        type            wall;
        inGroups        1(wall);
        nFaces          1;
        startFace       566092;
    }
    ciliaWedge24back
    {
        type            wall;
        inGroups        1(wall);
        nFaces          1;
        startFace       566093;
    }
    ciliaWedge24bot
    {
        type            wall;
        inGroups        1(wall);
        nFaces          1;
        startFace       566094;
    }
    ciliaWedge24t
    {
        type            wall;
        inGroups        1(wall);
        nFaces          1;
        startFace       566095;
    }
    ciliaWedge34f
    {
        type            wall;
        inGroups        1(wall);
        nFaces          1;
        startFace       566096;
    }
    ciliaWedge34back
    {
        type            wall;
        inGroups        1(wall);
        nFaces          1;
        startFace       566097;
    }
    ciliaWedge34bot
    {
        type            wall;
        inGroups        1(wall);
        nFaces          1;
        startFace       566098;
    }
    ciliaWedge34t
    {
        type            wall;
        inGroups        1(wall);
        nFaces          1;
        startFace       566099;
    }
    ciliaWedge40f
    {
        type            wall;
        inGroups        1(wall);
        nFaces          1;
        startFace       566100;
    }
    ciliaWedge40back
    {
        type            wall;
        inGroups        1(wall);
        nFaces          1;
        startFace       566101;
    }
    ciliaWedge40bot
    {
        type            wall;
        inGroups        1(wall);
        nFaces          1;
        startFace       566102;
    }
    ciliaWedge40t
    {
        type            wall;
        inGroups        1(wall);
        nFaces          1;
        startFace       566103;
    }
    ciliaWedge50f
    {
        type            wall;
        inGroups        1(wall);
        nFaces          1;
        startFace       566104;
    }
    ciliaWedge50back
    {
        type            wall;
        inGroups        1(wall);
        nFaces          1;
        startFace       566105;
    }
    ciliaWedge50bot
    {
        type            wall;
        inGroups        1(wall);
        nFaces          1;
        startFace       566106;
    }
    ciliaWedge50t
    {
        type            wall;
        inGroups        1(wall);
        nFaces          1;
        startFace       566107;
    }
    ciliaWedge56f
    {
        type            wall;
        inGroups        1(wall);
        nFaces          1;
        startFace       566108;
    }
    ciliaWedge56back
    {
        type            wall;
        inGroups        1(wall);
        nFaces          1;
        startFace       566109;
    }
    ciliaWedge56bot
    {
        type            wall;
        inGroups        1(wall);
        nFaces          1;
        startFace       566110;
    }
    ciliaWedge56t
    {
        type            wall;
        inGroups        1(wall);
        nFaces          1;
        startFace       566111;
    }
    ciliaWedge9f
    {
        type            wall;
        inGroups        1(wall);
        nFaces          1;
        startFace       566112;
    }
    ciliaWedge9back
    {
        type            wall;
        inGroups        1(wall);
        nFaces          1;
        startFace       566113;
    }
    ciliaWedge9bot
    {
        type            wall;
        inGroups        1(wall);
        nFaces          1;
        startFace       566114;
    }
    ciliaWedge9t
    {
        type            wall;
        inGroups        1(wall);
        nFaces          1;
        startFace       566115;
    }
    ciliaWedge25f
    {
        type            wall;
        inGroups        1(wall);
        nFaces          1;
        startFace       566116;
    }
    ciliaWedge25back
    {
        type            wall;
        inGroups        1(wall);
        nFaces          1;
        startFace       566117;
    }
    ciliaWedge25bot
    {
        type            wall;
        inGroups        1(wall);
        nFaces          1;
        startFace       566118;
    }
    ciliaWedge25t
    {
        type            wall;
        inGroups        1(wall);
        nFaces          1;
        startFace       566119;
    }
    ciliaWedge41f
    {
        type            wall;
        inGroups        1(wall);
        nFaces          1;
        startFace       566120;
    }
    ciliaWedge41back
    {
        type            wall;
        inGroups        1(wall);
        nFaces          1;
        startFace       566121;
    }
    ciliaWedge41bot
    {
        type            wall;
        inGroups        1(wall);
        nFaces          1;
        startFace       566122;
    }
    ciliaWedge41t
    {
        type            wall;
        inGroups        1(wall);
        nFaces          1;
        startFace       566123;
    }
    ciliaWedge57f
    {
        type            wall;
        inGroups        1(wall);
        nFaces          1;
        startFace       566124;
    }
    ciliaWedge57back
    {
        type            wall;
        inGroups        1(wall);
        nFaces          1;
        startFace       566125;
    }
    ciliaWedge57bot
    {
        type            wall;
        inGroups        1(wall);
        nFaces          1;
        startFace       566126;
    }
    ciliaWedge57t
    {
        type            wall;
        inGroups        1(wall);
        nFaces          1;
        startFace       566127;
    }
    ciliaWedge10f
    {
        type            wall;
        inGroups        1(wall);
        nFaces          1;
        startFace       566128;
    }
    ciliaWedge10back
    {
        type            wall;
        inGroups        1(wall);
        nFaces          1;
        startFace       566129;
    }
    ciliaWedge10bot
    {
        type            wall;
        inGroups        1(wall);
        nFaces          1;
        startFace       566130;
    }
    ciliaWedge10t
    {
        type            wall;
        inGroups        1(wall);
        nFaces          1;
        startFace       566131;
    }
    ciliaWedge26f
    {
        type            wall;
        inGroups        1(wall);
        nFaces          1;
        startFace       566132;
    }
    ciliaWedge26back
    {
        type            wall;
        inGroups        1(wall);
        nFaces          1;
        startFace       566133;
    }
    ciliaWedge26bot
    {
        type            wall;
        inGroups        1(wall);
        nFaces          1;
        startFace       566134;
    }
    ciliaWedge26t
    {
        type            wall;
        inGroups        1(wall);
        nFaces          1;
        startFace       566135;
    }
    ciliaWedge42f
    {
        type            wall;
        inGroups        1(wall);
        nFaces          1;
        startFace       566136;
    }
    ciliaWedge42back
    {
        type            wall;
        inGroups        1(wall);
        nFaces          1;
        startFace       566137;
    }
    ciliaWedge42bot
    {
        type            wall;
        inGroups        1(wall);
        nFaces          1;
        startFace       566138;
    }
    ciliaWedge42t
    {
        type            wall;
        inGroups        1(wall);
        nFaces          1;
        startFace       566139;
    }
    ciliaWedge58f
    {
        type            wall;
        inGroups        1(wall);
        nFaces          1;
        startFace       566140;
    }
    ciliaWedge58back
    {
        type            wall;
        inGroups        1(wall);
        nFaces          1;
        startFace       566141;
    }
    ciliaWedge58bot
    {
        type            wall;
        inGroups        1(wall);
        nFaces          1;
        startFace       566142;
    }
    ciliaWedge58t
    {
        type            wall;
        inGroups        1(wall);
        nFaces          1;
        startFace       566143;
    }
    ciliaWedge1f
    {
        type            wall;
        inGroups        1(wall);
        nFaces          1;
        startFace       566144;
    }
    ciliaWedge1back
    {
        type            wall;
        inGroups        1(wall);
        nFaces          1;
        startFace       566145;
    }
    ciliaWedge1bot
    {
        type            wall;
        inGroups        1(wall);
        nFaces          1;
        startFace       566146;
    }
    ciliaWedge1t
    {
        type            wall;
        inGroups        1(wall);
        nFaces          1;
        startFace       566147;
    }
    ciliaWedge17f
    {
        type            wall;
        inGroups        1(wall);
        nFaces          1;
        startFace       566148;
    }
    ciliaWedge17back
    {
        type            wall;
        inGroups        1(wall);
        nFaces          1;
        startFace       566149;
    }
    ciliaWedge17bot
    {
        type            wall;
        inGroups        1(wall);
        nFaces          1;
        startFace       566150;
    }
    ciliaWedge17t
    {
        type            wall;
        inGroups        1(wall);
        nFaces          1;
        startFace       566151;
    }
    ciliaWedge33f
    {
        type            wall;
        inGroups        1(wall);
        nFaces          1;
        startFace       566152;
    }
    ciliaWedge33back
    {
        type            wall;
        inGroups        1(wall);
        nFaces          1;
        startFace       566153;
    }
    ciliaWedge33bot
    {
        type            wall;
        inGroups        1(wall);
        nFaces          1;
        startFace       566154;
    }
    ciliaWedge33t
    {
        type            wall;
        inGroups        1(wall);
        nFaces          1;
        startFace       566155;
    }
    ciliaWedge49f
    {
        type            wall;
        inGroups        1(wall);
        nFaces          1;
        startFace       566156;
    }
    ciliaWedge49back
    {
        type            wall;
        inGroups        1(wall);
        nFaces          1;
        startFace       566157;
    }
    ciliaWedge49bot
    {
        type            wall;
        inGroups        1(wall);
        nFaces          1;
        startFace       566158;
    }
    ciliaWedge49t
    {
        type            wall;
        inGroups        1(wall);
        nFaces          1;
        startFace       566159;
    }
    ciliaWedge11f
    {
        type            wall;
        inGroups        1(wall);
        nFaces          1;
        startFace       566160;
    }
    ciliaWedge11back
    {
        type            wall;
        inGroups        1(wall);
        nFaces          1;
        startFace       566161;
    }
    ciliaWedge11bot
    {
        type            wall;
        inGroups        1(wall);
        nFaces          1;
        startFace       566162;
    }
    ciliaWedge11t
    {
        type            wall;
        inGroups        1(wall);
        nFaces          1;
        startFace       566163;
    }
    ciliaWedge27f
    {
        type            wall;
        inGroups        1(wall);
        nFaces          1;
        startFace       566164;
    }
    ciliaWedge27back
    {
        type            wall;
        inGroups        1(wall);
        nFaces          1;
        startFace       566165;
    }
    ciliaWedge27bot
    {
        type            wall;
        inGroups        1(wall);
        nFaces          1;
        startFace       566166;
    }
    ciliaWedge27t
    {
        type            wall;
        inGroups        1(wall);
        nFaces          1;
        startFace       566167;
    }
    ciliaWedge43f
    {
        type            wall;
        inGroups        1(wall);
        nFaces          1;
        startFace       566168;
    }
    ciliaWedge43back
    {
        type            wall;
        inGroups        1(wall);
        nFaces          1;
        startFace       566169;
    }
    ciliaWedge43bot
    {
        type            wall;
        inGroups        1(wall);
        nFaces          1;
        startFace       566170;
    }
    ciliaWedge43t
    {
        type            wall;
        inGroups        1(wall);
        nFaces          1;
        startFace       566171;
    }
    ciliaWedge59f
    {
        type            wall;
        inGroups        1(wall);
        nFaces          1;
        startFace       566172;
    }
    ciliaWedge59back
    {
        type            wall;
        inGroups        1(wall);
        nFaces          1;
        startFace       566173;
    }
    ciliaWedge59bot
    {
        type            wall;
        inGroups        1(wall);
        nFaces          1;
        startFace       566174;
    }
    ciliaWedge59t
    {
        type            wall;
        inGroups        1(wall);
        nFaces          1;
        startFace       566175;
    }
    ciliaWedge12f
    {
        type            wall;
        inGroups        1(wall);
        nFaces          1;
        startFace       566176;
    }
    ciliaWedge12back
    {
        type            wall;
        inGroups        1(wall);
        nFaces          1;
        startFace       566177;
    }
    ciliaWedge12bot
    {
        type            wall;
        inGroups        1(wall);
        nFaces          1;
        startFace       566178;
    }
    ciliaWedge12t
    {
        type            wall;
        inGroups        1(wall);
        nFaces          1;
        startFace       566179;
    }
    ciliaWedge28f
    {
        type            wall;
        inGroups        1(wall);
        nFaces          1;
        startFace       566180;
    }
    ciliaWedge28back
    {
        type            wall;
        inGroups        1(wall);
        nFaces          1;
        startFace       566181;
    }
    ciliaWedge28bot
    {
        type            wall;
        inGroups        1(wall);
        nFaces          1;
        startFace       566182;
    }
    ciliaWedge28t
    {
        type            wall;
        inGroups        1(wall);
        nFaces          1;
        startFace       566183;
    }
    ciliaWedge44f
    {
        type            wall;
        inGroups        1(wall);
        nFaces          1;
        startFace       566184;
    }
    ciliaWedge44back
    {
        type            wall;
        inGroups        1(wall);
        nFaces          1;
        startFace       566185;
    }
    ciliaWedge44bot
    {
        type            wall;
        inGroups        1(wall);
        nFaces          1;
        startFace       566186;
    }
    ciliaWedge44t
    {
        type            wall;
        inGroups        1(wall);
        nFaces          1;
        startFace       566187;
    }
    ciliaWedge60f
    {
        type            wall;
        inGroups        1(wall);
        nFaces          1;